<?xml version="1.0" encoding="UTF-8"?>

<!-- generated on 2026-05-12 14:56:12.384763 by Eclipse SUMO runner.py v1_26_0+0000-fa7df22d7f1
<configuration>
    <net-file value="data/net.net.xml"/>
    <output-trip-file value="data/flows.xml"/>
    <trip-attributes value="departPos=&quot;random&quot; departSpeed=&quot;max&quot;"/>
    <jtrrouter value="True"/>
    <end value="1.0"/>
    <flows value="100"/>
</configuration>
-->

<!-- generated on 2026-05-12T14:56:12.317744+09:00 by Eclipse SUMO duarouter 1.26.0
<duarouterConfiguration xmlns:xsi="http://www.w3.org/2001/XMLSchema-instance" xsi:noNamespaceSchemaLocation="http://sumo.dlr.de/xsd/duarouterConfiguration.xsd">

    <input>
        <net-file value="data/net.net.xml"/>
        <route-files value="data/flows.xml"/>
    </input>

    <output>
        <output-file value="routes.rou.xml"/>
        <alternatives-output value="NUL"/>
    </output>

    <processing>
        <keep-flows value="true"/>
    </processing>

    <time>
        <begin value="0.0"/>
        <end value="1.0"/>
    </time>

    <report>
        <no-warnings value="true"/>
        <ignore-errors value="true"/>
        <no-step-log value="true"/>
    </report>

</duarouterConfiguration>
-->

<routes xmlns:xsi="http://www.w3.org/2001/XMLSchema-instance" xsi:noNamespaceSchemaLocation="http://sumo.dlr.de/xsd/routes_file.xsd">
    <flow id="0" begin="0.00" end="1.00" period="100" departPos="random" departSpeed="max">
        <route edges="G3G2"/>
    </flow>
    <flow id="1" begin="0.00" end="1.00" period="100" departPos="random" departSpeed="max">
        <route edges="C8C9"/>
    </flow>
    <flow id="10" begin="0.00" end="1.00" period="100" departPos="random" departSpeed="max">
        <route edges="H8I8"/>
    </flow>
    <flow id="11" begin="0.00" end="1.00" period="100" departPos="random" departSpeed="max">
        <route edges="D4E4"/>
    </flow>
    <flow id="12" begin="0.00" end="1.00" period="100" departPos="random" departSpeed="max">
        <route edges="J4J3"/>
    </flow>
    <flow id="13" begin="0.00" end="1.00" period="100" departPos="random" departSpeed="max">
        <route edges="B1B2"/>
    </flow>
    <flow id="14" begin="0.00" end="1.00" period="100" departPos="random" departSpeed="max">
        <route edges="I3H3"/>
    </flow>
    <flow id="15" begin="0.00" end="1.00" period="100" departPos="random" departSpeed="max">
        <route edges="H8I8"/>
    </flow>
    <flow id="16" begin="0.00" end="1.00" period="100" departPos="random" departSpeed="max">
        <route edges="F3F4"/>
    </flow>
    <flow id="17" begin="0.00" end="1.00" period="100" departPos="random" departSpeed="max">
        <route edges="D8D7"/>
    </flow>
    <flow id="18" begin="0.00" end="1.00" period="100" departPos="random" departSpeed="max">
        <route edges="I1I0"/>
    </flow>
    <flow id="19" begin="0.00" end="1.00" period="100" departPos="random" departSpeed="max">
        <route edges="I4I3"/>
    </flow>
    <flow id="2" begin="0.00" end="1.00" period="100" departPos="random" departSpeed="max">
        <route edges="H2H3"/>
    </flow>
    <flow id="20" begin="0.00" end="1.00" period="100" departPos="random" departSpeed="max">
        <route edges="G9F9"/>
    </flow>
    <flow id="21" begin="0.00" end="1.00" period="100" departPos="random" departSpeed="max">
        <route edges="C4C3"/>
    </flow>
    <flow id="22" begin="0.00" end="1.00" period="100" departPos="random" departSpeed="max">
        <route edges="B0A0"/>
    </flow>
    <flow id="23" begin="0.00" end="1.00" period="100" departPos="random" departSpeed="max">
        <route edges="B2B1"/>
    </flow>
    <flow id="24" begin="0.00" end="1.00" period="100" departPos="random" departSpeed="max">
        <route edges="G2H2"/>
    </flow>
    <flow id="25" begin="0.00" end="1.00" period="100" departPos="random" departSpeed="max">
        <route edges="D7D8"/>
    </flow>
    <flow id="26" begin="0.00" end="1.00" period="100" departPos="random" departSpeed="max">
        <route edges="C7D7"/>
    </flow>
    <flow id="27" begin="0.00" end="1.00" period="100" departPos="random" departSpeed="max">
        <route edges="G4F4"/>
    </flow>
    <flow id="28" begin="0.00" end="1.00" period="100" departPos="random" departSpeed="max">
        <route edges="B8B9"/>
    </flow>
    <flow id="29" begin="0.00" end="1.00" period="100" departPos="random" departSpeed="max">
        <route edges="B7C7"/>
    </flow>
    <flow id="3" begin="0.00" end="1.00" period="100" departPos="random" departSpeed="max">
        <route edges="I7H7"/>
    </flow>
    <flow id="30" begin="0.00" end="1.00" period="100" departPos="random" departSpeed="max">
        <route edges="J8J7"/>
    </flow>
    <flow id="31" begin="0.00" end="1.00" period="100" departPos="random" departSpeed="max">
        <route edges="F5F4"/>
    </flow>
    <flow id="32" begin="0.00" end="1.00" period="100" departPos="random" departSpeed="max">
        <route edges="I2I3"/>
    </flow>
    <flow id="33" begin="0.00" end="1.00" period="100" departPos="random" departSpeed="max">
        <route edges="C4C3"/>
    </flow>
    <flow id="34" begin="0.00" end="1.00" period="100" departPos="random" departSpeed="max">
        <route edges="D2D3"/>
    </flow>
    <flow id="35" begin="0.00" end="1.00" period="100" departPos="random" departSpeed="max">
        <route edges="C2C3"/>
    </flow>
    <flow id="36" begin="0.00" end="1.00" period="100" departPos="random" departSpeed="max">
        <route edges="I5I6"/>
    </flow>
    <flow id="37" begin="0.00" end="1.00" period="100" departPos="random" departSpeed="max">
        <route edges="G4G5"/>
    </flow>
    <flow id="38" begin="0.00" end="1.00" period="100" departPos="random" departSpeed="max">
        <route edges="I9H9"/>
    </flow>
    <flow id="39" begin="0.00" end="1.00" period="100" departPos="random" departSpeed="max">
        <route edges="C7C8"/>
    </flow>
    <flow id="4" begin="0.00" end="1.00" period="100" departPos="random" departSpeed="max">
        <route edges="E2E3"/>
    </flow>
    <flow id="40" begin="0.00" end="1.00" period="100" departPos="random" departSpeed="max">
        <route edges="F5G5"/>
    </flow>
    <flow id="41" begin="0.00" end="1.00" period="100" departPos="random" departSpeed="max">
        <route edges="F7G7"/>
    </flow>
    <flow id="42" begin="0.00" end="1.00" period="100" departPos="random" departSpeed="max">
        <route edges="E0E1"/>
    </flow>
    <flow id="43" begin="0.00" end="1.00" period="100" departPos="random" departSpeed="max">
        <route edges="J9J8"/>
    </flow>
    <flow id="44" begin="0.00" end="1.00" period="100" departPos="random" departSpeed="max">
        <route edges="B1B0"/>
    </flow>
    <flow id="45" begin="0.00" end="1.00" period="100" departPos="random" departSpeed="max">
        <route edges="B3A3"/>
    </flow>
    <flow id="46" begin="0.00" end="1.00" period="100" departPos="random" departSpeed="max">
        <route edges="H7H8"/>
    </flow>
    <flow id="47" begin="0.00" end="1.00" period="100" departPos="random" departSpeed="max">
        <route edges="A7B7"/>
    </flow>
    <flow id="48" begin="0.00" end="1.00" period="100" departPos="random" departSpeed="max">
        <route edges="J9I9"/>
    </flow>
    <flow id="49" begin="0.00" end="1.00" period="100" departPos="random" departSpeed="max">
        <route edges="J6I6"/>
    </flow>
    <flow id="5" begin="0.00" end="1.00" period="100" departPos="random" departSpeed="max">
        <route edges="C3C2"/>
    </flow>
    <flow id="50" begin="0.00" end="1.00" period="100" departPos="random" departSpeed="max">
        <route edges="A1B1"/>
    </flow>
    <flow id="51" begin="0.00" end="1.00" period="100" departPos="random" departSpeed="max">
        <route edges="G7F7"/>
    </flow>
    <flow id="52" begin="0.00" end="1.00" period="100" departPos="random" departSpeed="max">
        <route edges="C7D7"/>
    </flow>
    <flow id="53" begin="0.00" end="1.00" period="100" departPos="random" departSpeed="max">
        <route edges="B3B2"/>
    </flow>
    <flow id="54" begin="0.00" end="1.00" period="100" departPos="random" departSpeed="max">
        <route edges="E5E6"/>
    </flow>
    <flow id="55" begin="0.00" end="1.00" period="100" departPos="random" departSpeed="max">
        <route edges="I5I6"/>
    </flow>
    <flow id="56" begin="0.00" end="1.00" period="100" departPos="random" departSpeed="max">
        <route edges="F0E0"/>
    </flow>
    <flow id="57" begin="0.00" end="1.00" period="100" departPos="random" departSpeed="max">
        <route edges="I8J8"/>
    </flow>
    <flow id="58" begin="0.00" end="1.00" period="100" departPos="random" departSpeed="max">
        <route edges="D1C1"/>
    </flow>
    <flow id="59" begin="0.00" end="1.00" period="100" departPos="random" departSpeed="max">
        <route edges="G0G1"/>
    </flow>
    <flow id="6" begin="0.00" end="1.00" period="100" departPos="random" departSpeed="max">
        <route edges="A3A4"/>
    </flow>
    <flow id="60" begin="0.00" end="1.00" period="100" departPos="random" departSpeed="max">
        <route edges="H4I4"/>
    </flow>
    <flow id="61" begin="0.00" end="1.00" period="100" departPos="random" departSpeed="max">
        <route edges="H6H5"/>
    </flow>
    <flow id="62" begin="0.00" end="1.00" period="100" departPos="random" departSpeed="max">
        <route edges="A0A1"/>
    </flow>
    <flow id="63" begin="0.00" end="1.00" period="100" departPos="random" departSpeed="max">
        <route edges="A2B2"/>
    </flow>
    <flow id="64" begin="0.00" end="1.00" period="100" departPos="random" departSpeed="max">
        <route edges="I5J5"/>
    </flow>
    <flow id="65" begin="0.00" end="1.00" period="100" departPos="random" departSpeed="max">
        <route edges="D1E1"/>
    </flow>
    <flow id="66" begin="0.00" end="1.00" period="100" departPos="random" departSpeed="max">
        <route edges="I5J5"/>
    </flow>
    <flow id="67" begin="0.00" end="1.00" period="100" departPos="random" departSpeed="max">
        <route edges="B0C0"/>
    </flow>
    <flow id="68" begin="0.00" end="1.00" period="100" departPos="random" departSpeed="max">
        <route edges="A8A9"/>
    </flow>
    <flow id="69" begin="0.00" end="1.00" period="100" departPos="random" departSpeed="max">
        <route edges="H5G5"/>
    </flow>
    <flow id="7" begin="0.00" end="1.00" period="100" departPos="random" departSpeed="max">
        <route edges="G4F4"/>
    </flow>
    <flow id="70" begin="0.00" end="1.00" period="100" departPos="random" departSpeed="max">
        <route edges="E7E8"/>
    </flow>
    <flow id="71" begin="0.00" end="1.00" period="100" departPos="random" departSpeed="max">
        <route edges="C7C8"/>
    </flow>
    <flow id="72" begin="0.00" end="1.00" period="100" departPos="random" departSpeed="max">
        <route edges="E2F2"/>
    </flow>
    <flow id="73" begin="0.00" end="1.00" period="100" departPos="random" departSpeed="max">
        <route edges="F3G3"/>
    </flow>
    <flow id="74" begin="0.00" end="1.00" period="100" departPos="random" departSpeed="max">
        <route edges="C1D1"/>
    </flow>
    <flow id="75" begin="0.00" end="1.00" period="100" departPos="random" departSpeed="max">
        <route edges="J9I9"/>
    </flow>
    <flow id="76" begin="0.00" end="1.00" period="100" departPos="random" departSpeed="max">
        <route edges="E4D4"/>
    </flow>
    <flow id="77" begin="0.00" end="1.00" period="100" departPos="random" departSpeed="max">
        <route edges="B4A4"/>
    </flow>
    <flow id="78" begin="0.00" end="1.00" period="100" departPos="random" departSpeed="max">
        <route edges="D4D5"/>
    </flow>
    <flow id="79" begin="0.00" end="1.00" period="100" departPos="random" departSpeed="max">
        <route edges="C4C3"/>
    </flow>
    <flow id="8" begin="0.00" end="1.00" period="100" departPos="random" departSpeed="max">
        <route edges="C3C4"/>
    </flow>
    <flow id="80" begin="0.00" end="1.00" period="100" departPos="random" departSpeed="max">
        <route edges="A8B8"/>
    </flow>
    <flow id="81" begin="0.00" end="1.00" period="100" departPos="random" departSpeed="max">
        <route edges="C4C3"/>
    </flow>
    <flow id="82" begin="0.00" end="1.00" period="100" departPos="random" departSpeed="max">
        <route edges="I4H4"/>
    </flow>
    <flow id="83" begin="0.00" end="1.00" period="100" departPos="random" departSpeed="max">
        <route edges="C5B5"/>
    </flow>
    <flow id="84" begin="0.00" end="1.00" period="100" departPos="random" departSpeed="max">
        <route edges="C3B3"/>
    </flow>
    <flow id="85" begin="0.00" end="1.00" period="100" departPos="random" departSpeed="max">
        <route edges="J1J2"/>
    </flow>
    <flow id="86" begin="0.00" end="1.00" period="100" departPos="random" departSpeed="max">
        <route edges="E7E6"/>
    </flow>
    <flow id="87" begin="0.00" end="1.00" period="100" departPos="random" departSpeed="max">
        <route edges="H8I8"/>
    </flow>
    <flow id="88" begin="0.00" end="1.00" period="100" departPos="random" departSpeed="max">
        <route edges="B1C1"/>
    </flow>
    <flow id="89" begin="0.00" end="1.00" period="100" departPos="random" departSpeed="max">
        <route edges="E2F2"/>
    </flow>
    <flow id="9" begin="0.00" end="1.00" period="100" departPos="random" departSpeed="max">
        <route edges="H9G9"/>
    </flow>
    <flow id="90" begin="0.00" end="1.00" period="100" departPos="random" departSpeed="max">
        <route edges="H1I1"/>
    </flow>
    <flow id="91" begin="0.00" end="1.00" period="100" departPos="random" departSpeed="max">
        <route edges="J7J8"/>
    </flow>
    <flow id="92" begin="0.00" end="1.00" period="100" departPos="random" departSpeed="max">
        <route edges="E0F0"/>
    </flow>
    <flow id="93" begin="0.00" end="1.00" period="100" departPos="random" departSpeed="max">
        <route edges="I4I3"/>
    </flow>
    <flow id="94" begin="0.00" end="1.00" period="100" departPos="random" departSpeed="max">
        <route edges="C0D0"/>
    </flow>
    <flow id="95" begin="0.00" end="1.00" period="100" departPos="random" departSpeed="max">
        <route edges="E2E3"/>
    </flow>
    <flow id="96" begin="0.00" end="1.00" period="100" departPos="random" departSpeed="max">
        <route edges="C6B6"/>
    </flow>
    <flow id="97" begin="0.00" end="1.00" period="100" departPos="random" departSpeed="max">
        <route edges="E4E5"/>
    </flow>
    <flow id="98" begin="0.00" end="1.00" period="100" departPos="random" departSpeed="max">
        <route edges="F4G4"/>
    </flow>
    <flow id="99" begin="0.00" end="1.00" period="100" departPos="random" departSpeed="max">
        <route edges="J9J8"/>
    </flow>
</routes>
