<?xml version="1.0" encoding="UTF-8"?>

<!-- generated on 2026-05-26 13:56:51.041466 by Eclipse SUMO runner.py v1_26_0+0000-fa7df22d7f1
<configuration>
    <net-file value="data/net.net.xml"/>
    <output-trip-file value="data/flows.xml"/>
    <trip-attributes value="departPos=&quot;random&quot; departSpeed=&quot;max&quot;"/>
    <jtrrouter value="True"/>
    <end value="1.0"/>
    <flows value="500"/>
</configuration>
-->

<!-- generated on 2026-05-26T13:56:50.959806+09:00 by Eclipse SUMO duarouter 1.26.0
<duarouterConfiguration xmlns:xsi="http://www.w3.org/2001/XMLSchema-instance" xsi:noNamespaceSchemaLocation="http://sumo.dlr.de/xsd/duarouterConfiguration.xsd">

    <input>
        <net-file value="data/net.net.xml"/>
        <route-files value="data/flows.xml"/>
    </input>

    <output>
        <output-file value="routes.rou.xml"/>
        <alternatives-output value="NUL"/>
    </output>

    <processing>
        <keep-flows value="true"/>
    </processing>

    <time>
        <begin value="0.0"/>
        <end value="1.0"/>
    </time>

    <report>
        <no-warnings value="true"/>
        <ignore-errors value="true"/>
        <no-step-log value="true"/>
    </report>

</duarouterConfiguration>
-->

<routes xmlns:xsi="http://www.w3.org/2001/XMLSchema-instance" xsi:noNamespaceSchemaLocation="http://sumo.dlr.de/xsd/routes_file.xsd">
    <flow id="0" begin="0.00" end="1.00" period="500" departPos="random" departSpeed="max">
        <route edges="G3G2"/>
    </flow>
    <flow id="1" begin="0.00" end="1.00" period="500" departPos="random" departSpeed="max">
        <route edges="C8C9"/>
    </flow>
    <flow id="10" begin="0.00" end="1.00" period="500" departPos="random" departSpeed="max">
        <route edges="H8I8"/>
    </flow>
    <flow id="100" begin="0.00" end="1.00" period="500" departPos="random" departSpeed="max">
        <route edges="J5J6"/>
    </flow>
    <flow id="101" begin="0.00" end="1.00" period="500" departPos="random" departSpeed="max">
        <route edges="I3H3"/>
    </flow>
    <flow id="102" begin="0.00" end="1.00" period="500" departPos="random" departSpeed="max">
        <route edges="E8E7"/>
    </flow>
    <flow id="103" begin="0.00" end="1.00" period="500" departPos="random" departSpeed="max">
        <route edges="E0F0"/>
    </flow>
    <flow id="104" begin="0.00" end="1.00" period="500" departPos="random" departSpeed="max">
        <route edges="D8D7"/>
    </flow>
    <flow id="105" begin="0.00" end="1.00" period="500" departPos="random" departSpeed="max">
        <route edges="C7C8"/>
    </flow>
    <flow id="106" begin="0.00" end="1.00" period="500" departPos="random" departSpeed="max">
        <route edges="E5E6"/>
    </flow>
    <flow id="107" begin="0.00" end="1.00" period="500" departPos="random" departSpeed="max">
        <route edges="J4J3"/>
    </flow>
    <flow id="108" begin="0.00" end="1.00" period="500" departPos="random" departSpeed="max">
        <route edges="F5F4"/>
    </flow>
    <flow id="109" begin="0.00" end="1.00" period="500" departPos="random" departSpeed="max">
        <route edges="B7A7"/>
    </flow>
    <flow id="11" begin="0.00" end="1.00" period="500" departPos="random" departSpeed="max">
        <route edges="D4E4"/>
    </flow>
    <flow id="110" begin="0.00" end="1.00" period="500" departPos="random" departSpeed="max">
        <route edges="J5J6"/>
    </flow>
    <flow id="111" begin="0.00" end="1.00" period="500" departPos="random" departSpeed="max">
        <route edges="F4E4"/>
    </flow>
    <flow id="112" begin="0.00" end="1.00" period="500" departPos="random" departSpeed="max">
        <route edges="A7A6"/>
    </flow>
    <flow id="113" begin="0.00" end="1.00" period="500" departPos="random" departSpeed="max">
        <route edges="F0F1"/>
    </flow>
    <flow id="114" begin="0.00" end="1.00" period="500" departPos="random" departSpeed="max">
        <route edges="B7B6"/>
    </flow>
    <flow id="115" begin="0.00" end="1.00" period="500" departPos="random" departSpeed="max">
        <route edges="B0A0"/>
    </flow>
    <flow id="116" begin="0.00" end="1.00" period="500" departPos="random" departSpeed="max">
        <route edges="F8G8"/>
    </flow>
    <flow id="117" begin="0.00" end="1.00" period="500" departPos="random" departSpeed="max">
        <route edges="C4D4"/>
    </flow>
    <flow id="118" begin="0.00" end="1.00" period="500" departPos="random" departSpeed="max">
        <route edges="I6J6"/>
    </flow>
    <flow id="119" begin="0.00" end="1.00" period="500" departPos="random" departSpeed="max">
        <route edges="F8G8"/>
    </flow>
    <flow id="12" begin="0.00" end="1.00" period="500" departPos="random" departSpeed="max">
        <route edges="J4J3"/>
    </flow>
    <flow id="120" begin="0.00" end="1.00" period="500" departPos="random" departSpeed="max">
        <route edges="E2E1"/>
    </flow>
    <flow id="121" begin="0.00" end="1.00" period="500" departPos="random" departSpeed="max">
        <route edges="F2F1"/>
    </flow>
    <flow id="122" begin="0.00" end="1.00" period="500" departPos="random" departSpeed="max">
        <route edges="C2B2"/>
    </flow>
    <flow id="123" begin="0.00" end="1.00" period="500" departPos="random" departSpeed="max">
        <route edges="C5B5"/>
    </flow>
    <flow id="124" begin="0.00" end="1.00" period="500" departPos="random" departSpeed="max">
        <route edges="G6F6"/>
    </flow>
    <flow id="125" begin="0.00" end="1.00" period="500" departPos="random" departSpeed="max">
        <route edges="D2D3"/>
    </flow>
    <flow id="126" begin="0.00" end="1.00" period="500" departPos="random" departSpeed="max">
        <route edges="A9A8"/>
    </flow>
    <flow id="127" begin="0.00" end="1.00" period="500" departPos="random" departSpeed="max">
        <route edges="J9J8"/>
    </flow>
    <flow id="128" begin="0.00" end="1.00" period="500" departPos="random" departSpeed="max">
        <route edges="A9A8"/>
    </flow>
    <flow id="129" begin="0.00" end="1.00" period="500" departPos="random" departSpeed="max">
        <route edges="C7C8"/>
    </flow>
    <flow id="13" begin="0.00" end="1.00" period="500" departPos="random" departSpeed="max">
        <route edges="B1B2"/>
    </flow>
    <flow id="130" begin="0.00" end="1.00" period="500" departPos="random" departSpeed="max">
        <route edges="I6H6"/>
    </flow>
    <flow id="131" begin="0.00" end="1.00" period="500" departPos="random" departSpeed="max">
        <route edges="D7D8"/>
    </flow>
    <flow id="132" begin="0.00" end="1.00" period="500" departPos="random" departSpeed="max">
        <route edges="I1J1"/>
    </flow>
    <flow id="133" begin="0.00" end="1.00" period="500" departPos="random" departSpeed="max">
        <route edges="G0H0"/>
    </flow>
    <flow id="134" begin="0.00" end="1.00" period="500" departPos="random" departSpeed="max">
        <route edges="G4G5"/>
    </flow>
    <flow id="135" begin="0.00" end="1.00" period="500" departPos="random" departSpeed="max">
        <route edges="I0H0"/>
    </flow>
    <flow id="136" begin="0.00" end="1.00" period="500" departPos="random" departSpeed="max">
        <route edges="G5G4"/>
    </flow>
    <flow id="137" begin="0.00" end="1.00" period="500" departPos="random" departSpeed="max">
        <route edges="B5B4"/>
    </flow>
    <flow id="138" begin="0.00" end="1.00" period="500" departPos="random" departSpeed="max">
        <route edges="B2C2"/>
    </flow>
    <flow id="139" begin="0.00" end="1.00" period="500" departPos="random" departSpeed="max">
        <route edges="C8C7"/>
    </flow>
    <flow id="14" begin="0.00" end="1.00" period="500" departPos="random" departSpeed="max">
        <route edges="I3H3"/>
    </flow>
    <flow id="140" begin="0.00" end="1.00" period="500" departPos="random" departSpeed="max">
        <route edges="H0I0"/>
    </flow>
    <flow id="141" begin="0.00" end="1.00" period="500" departPos="random" departSpeed="max">
        <route edges="G2H2"/>
    </flow>
    <flow id="142" begin="0.00" end="1.00" period="500" departPos="random" departSpeed="max">
        <route edges="E8E9"/>
    </flow>
    <flow id="143" begin="0.00" end="1.00" period="500" departPos="random" departSpeed="max">
        <route edges="I2J2"/>
    </flow>
    <flow id="144" begin="0.00" end="1.00" period="500" departPos="random" departSpeed="max">
        <route edges="E2F2"/>
    </flow>
    <flow id="145" begin="0.00" end="1.00" period="500" departPos="random" departSpeed="max">
        <route edges="A0B0"/>
    </flow>
    <flow id="146" begin="0.00" end="1.00" period="500" departPos="random" departSpeed="max">
        <route edges="G3F3"/>
    </flow>
    <flow id="147" begin="0.00" end="1.00" period="500" departPos="random" departSpeed="max">
        <route edges="H2I2"/>
    </flow>
    <flow id="148" begin="0.00" end="1.00" period="500" departPos="random" departSpeed="max">
        <route edges="E3D3"/>
    </flow>
    <flow id="149" begin="0.00" end="1.00" period="500" departPos="random" departSpeed="max">
        <route edges="A9B9"/>
    </flow>
    <flow id="15" begin="0.00" end="1.00" period="500" departPos="random" departSpeed="max">
        <route edges="H8I8"/>
    </flow>
    <flow id="150" begin="0.00" end="1.00" period="500" departPos="random" departSpeed="max">
        <route edges="I8H8"/>
    </flow>
    <flow id="151" begin="0.00" end="1.00" period="500" departPos="random" departSpeed="max">
        <route edges="I1J1"/>
    </flow>
    <flow id="152" begin="0.00" end="1.00" period="500" departPos="random" departSpeed="max">
        <route edges="B6B7"/>
    </flow>
    <flow id="153" begin="0.00" end="1.00" period="500" departPos="random" departSpeed="max">
        <route edges="D1E1"/>
    </flow>
    <flow id="154" begin="0.00" end="1.00" period="500" departPos="random" departSpeed="max">
        <route edges="H7I7"/>
    </flow>
    <flow id="155" begin="0.00" end="1.00" period="500" departPos="random" departSpeed="max">
        <route edges="I7I8"/>
    </flow>
    <flow id="156" begin="0.00" end="1.00" period="500" departPos="random" departSpeed="max">
        <route edges="C6B6"/>
    </flow>
    <flow id="157" begin="0.00" end="1.00" period="500" departPos="random" departSpeed="max">
        <route edges="H6H5"/>
    </flow>
    <flow id="158" begin="0.00" end="1.00" period="500" departPos="random" departSpeed="max">
        <route edges="E1E0"/>
    </flow>
    <flow id="159" begin="0.00" end="1.00" period="500" departPos="random" departSpeed="max">
        <route edges="B7A7"/>
    </flow>
    <flow id="16" begin="0.00" end="1.00" period="500" departPos="random" departSpeed="max">
        <route edges="F3F4"/>
    </flow>
    <flow id="160" begin="0.00" end="1.00" period="500" departPos="random" departSpeed="max">
        <route edges="I4I5"/>
    </flow>
    <flow id="161" begin="0.00" end="1.00" period="500" departPos="random" departSpeed="max">
        <route edges="H9G9"/>
    </flow>
    <flow id="162" begin="0.00" end="1.00" period="500" departPos="random" departSpeed="max">
        <route edges="A3A2"/>
    </flow>
    <flow id="163" begin="0.00" end="1.00" period="500" departPos="random" departSpeed="max">
        <route edges="D4C4"/>
    </flow>
    <flow id="164" begin="0.00" end="1.00" period="500" departPos="random" departSpeed="max">
        <route edges="H8H7"/>
    </flow>
    <flow id="165" begin="0.00" end="1.00" period="500" departPos="random" departSpeed="max">
        <route edges="H9G9"/>
    </flow>
    <flow id="166" begin="0.00" end="1.00" period="500" departPos="random" departSpeed="max">
        <route edges="H7G7"/>
    </flow>
    <flow id="167" begin="0.00" end="1.00" period="500" departPos="random" departSpeed="max">
        <route edges="I5H5"/>
    </flow>
    <flow id="168" begin="0.00" end="1.00" period="500" departPos="random" departSpeed="max">
        <route edges="C3D3"/>
    </flow>
    <flow id="169" begin="0.00" end="1.00" period="500" departPos="random" departSpeed="max">
        <route edges="E6D6"/>
    </flow>
    <flow id="17" begin="0.00" end="1.00" period="500" departPos="random" departSpeed="max">
        <route edges="D8D7"/>
    </flow>
    <flow id="170" begin="0.00" end="1.00" period="500" departPos="random" departSpeed="max">
        <route edges="H7I7"/>
    </flow>
    <flow id="171" begin="0.00" end="1.00" period="500" departPos="random" departSpeed="max">
        <route edges="A3A2"/>
    </flow>
    <flow id="172" begin="0.00" end="1.00" period="500" departPos="random" departSpeed="max">
        <route edges="D3E3"/>
    </flow>
    <flow id="173" begin="0.00" end="1.00" period="500" departPos="random" departSpeed="max">
        <route edges="J5J6"/>
    </flow>
    <flow id="174" begin="0.00" end="1.00" period="500" departPos="random" departSpeed="max">
        <route edges="G3G2"/>
    </flow>
    <flow id="175" begin="0.00" end="1.00" period="500" departPos="random" departSpeed="max">
        <route edges="J7J6"/>
    </flow>
    <flow id="176" begin="0.00" end="1.00" period="500" departPos="random" departSpeed="max">
        <route edges="J2J1"/>
    </flow>
    <flow id="177" begin="0.00" end="1.00" period="500" departPos="random" departSpeed="max">
        <route edges="J6I6"/>
    </flow>
    <flow id="178" begin="0.00" end="1.00" period="500" departPos="random" departSpeed="max">
        <route edges="J5I5"/>
    </flow>
    <flow id="179" begin="0.00" end="1.00" period="500" departPos="random" departSpeed="max">
        <route edges="B3A3"/>
    </flow>
    <flow id="18" begin="0.00" end="1.00" period="500" departPos="random" departSpeed="max">
        <route edges="I1I0"/>
    </flow>
    <flow id="180" begin="0.00" end="1.00" period="500" departPos="random" departSpeed="max">
        <route edges="H1I1"/>
    </flow>
    <flow id="181" begin="0.00" end="1.00" period="500" departPos="random" departSpeed="max">
        <route edges="G0F0"/>
    </flow>
    <flow id="182" begin="0.00" end="1.00" period="500" departPos="random" departSpeed="max">
        <route edges="D8E8"/>
    </flow>
    <flow id="183" begin="0.00" end="1.00" period="500" departPos="random" departSpeed="max">
        <route edges="C6C7"/>
    </flow>
    <flow id="184" begin="0.00" end="1.00" period="500" departPos="random" departSpeed="max">
        <route edges="A0A1"/>
    </flow>
    <flow id="185" begin="0.00" end="1.00" period="500" departPos="random" departSpeed="max">
        <route edges="F3F4"/>
    </flow>
    <flow id="186" begin="0.00" end="1.00" period="500" departPos="random" departSpeed="max">
        <route edges="H3G3"/>
    </flow>
    <flow id="187" begin="0.00" end="1.00" period="500" departPos="random" departSpeed="max">
        <route edges="D7C7"/>
    </flow>
    <flow id="188" begin="0.00" end="1.00" period="500" departPos="random" departSpeed="max">
        <route edges="G5G6"/>
    </flow>
    <flow id="189" begin="0.00" end="1.00" period="500" departPos="random" departSpeed="max">
        <route edges="D2D3"/>
    </flow>
    <flow id="19" begin="0.00" end="1.00" period="500" departPos="random" departSpeed="max">
        <route edges="I4I3"/>
    </flow>
    <flow id="190" begin="0.00" end="1.00" period="500" departPos="random" departSpeed="max">
        <route edges="H1G1"/>
    </flow>
    <flow id="191" begin="0.00" end="1.00" period="500" departPos="random" departSpeed="max">
        <route edges="D2C2"/>
    </flow>
    <flow id="192" begin="0.00" end="1.00" period="500" departPos="random" departSpeed="max">
        <route edges="E0F0"/>
    </flow>
    <flow id="193" begin="0.00" end="1.00" period="500" departPos="random" departSpeed="max">
        <route edges="B4B5"/>
    </flow>
    <flow id="194" begin="0.00" end="1.00" period="500" departPos="random" departSpeed="max">
        <route edges="J2J1"/>
    </flow>
    <flow id="195" begin="0.00" end="1.00" period="500" departPos="random" departSpeed="max">
        <route edges="I8H8"/>
    </flow>
    <flow id="196" begin="0.00" end="1.00" period="500" departPos="random" departSpeed="max">
        <route edges="D1D0"/>
    </flow>
    <flow id="197" begin="0.00" end="1.00" period="500" departPos="random" departSpeed="max">
        <route edges="A0A1"/>
    </flow>
    <flow id="198" begin="0.00" end="1.00" period="500" departPos="random" departSpeed="max">
        <route edges="E3E2"/>
    </flow>
    <flow id="199" begin="0.00" end="1.00" period="500" departPos="random" departSpeed="max">
        <route edges="G4G5"/>
    </flow>
    <flow id="2" begin="0.00" end="1.00" period="500" departPos="random" departSpeed="max">
        <route edges="H2H3"/>
    </flow>
    <flow id="20" begin="0.00" end="1.00" period="500" departPos="random" departSpeed="max">
        <route edges="G9F9"/>
    </flow>
    <flow id="200" begin="0.00" end="1.00" period="500" departPos="random" departSpeed="max">
        <route edges="E4E5"/>
    </flow>
    <flow id="201" begin="0.00" end="1.00" period="500" departPos="random" departSpeed="max">
        <route edges="E7E6"/>
    </flow>
    <flow id="202" begin="0.00" end="1.00" period="500" departPos="random" departSpeed="max">
        <route edges="H7I7"/>
    </flow>
    <flow id="203" begin="0.00" end="1.00" period="500" departPos="random" departSpeed="max">
        <route edges="B0C0"/>
    </flow>
    <flow id="204" begin="0.00" end="1.00" period="500" departPos="random" departSpeed="max">
        <route edges="G2G3"/>
    </flow>
    <flow id="205" begin="0.00" end="1.00" period="500" departPos="random" departSpeed="max">
        <route edges="I0H0"/>
    </flow>
    <flow id="206" begin="0.00" end="1.00" period="500" departPos="random" departSpeed="max">
        <route edges="G6G5"/>
    </flow>
    <flow id="207" begin="0.00" end="1.00" period="500" departPos="random" departSpeed="max">
        <route edges="C1C2"/>
    </flow>
    <flow id="208" begin="0.00" end="1.00" period="500" departPos="random" departSpeed="max">
        <route edges="C5D5"/>
    </flow>
    <flow id="209" begin="0.00" end="1.00" period="500" departPos="random" departSpeed="max">
        <route edges="I3H3"/>
    </flow>
    <flow id="21" begin="0.00" end="1.00" period="500" departPos="random" departSpeed="max">
        <route edges="C4C3"/>
    </flow>
    <flow id="210" begin="0.00" end="1.00" period="500" departPos="random" departSpeed="max">
        <route edges="E2D2"/>
    </flow>
    <flow id="211" begin="0.00" end="1.00" period="500" departPos="random" departSpeed="max">
        <route edges="C1B1"/>
    </flow>
    <flow id="212" begin="0.00" end="1.00" period="500" departPos="random" departSpeed="max">
        <route edges="E9D9"/>
    </flow>
    <flow id="213" begin="0.00" end="1.00" period="500" departPos="random" departSpeed="max">
        <route edges="G4H4"/>
    </flow>
    <flow id="214" begin="0.00" end="1.00" period="500" departPos="random" departSpeed="max">
        <route edges="H3I3"/>
    </flow>
    <flow id="215" begin="0.00" end="1.00" period="500" departPos="random" departSpeed="max">
        <route edges="B2C2"/>
    </flow>
    <flow id="216" begin="0.00" end="1.00" period="500" departPos="random" departSpeed="max">
        <route edges="B9A9"/>
    </flow>
    <flow id="217" begin="0.00" end="1.00" period="500" departPos="random" departSpeed="max">
        <route edges="F1G1"/>
    </flow>
    <flow id="218" begin="0.00" end="1.00" period="500" departPos="random" departSpeed="max">
        <route edges="C6B6"/>
    </flow>
    <flow id="219" begin="0.00" end="1.00" period="500" departPos="random" departSpeed="max">
        <route edges="E5F5"/>
    </flow>
    <flow id="22" begin="0.00" end="1.00" period="500" departPos="random" departSpeed="max">
        <route edges="B0A0"/>
    </flow>
    <flow id="220" begin="0.00" end="1.00" period="500" departPos="random" departSpeed="max">
        <route edges="G5H5"/>
    </flow>
    <flow id="221" begin="0.00" end="1.00" period="500" departPos="random" departSpeed="max">
        <route edges="F8G8"/>
    </flow>
    <flow id="222" begin="0.00" end="1.00" period="500" departPos="random" departSpeed="max">
        <route edges="I6J6"/>
    </flow>
    <flow id="223" begin="0.00" end="1.00" period="500" departPos="random" departSpeed="max">
        <route edges="H0I0"/>
    </flow>
    <flow id="224" begin="0.00" end="1.00" period="500" departPos="random" departSpeed="max">
        <route edges="I1I2"/>
    </flow>
    <flow id="225" begin="0.00" end="1.00" period="500" departPos="random" departSpeed="max">
        <route edges="I7I6"/>
    </flow>
    <flow id="226" begin="0.00" end="1.00" period="500" departPos="random" departSpeed="max">
        <route edges="E7E6"/>
    </flow>
    <flow id="227" begin="0.00" end="1.00" period="500" departPos="random" departSpeed="max">
        <route edges="C6B6"/>
    </flow>
    <flow id="228" begin="0.00" end="1.00" period="500" departPos="random" departSpeed="max">
        <route edges="H5G5"/>
    </flow>
    <flow id="229" begin="0.00" end="1.00" period="500" departPos="random" departSpeed="max">
        <route edges="G2F2"/>
    </flow>
    <flow id="23" begin="0.00" end="1.00" period="500" departPos="random" departSpeed="max">
        <route edges="B2B1"/>
    </flow>
    <flow id="230" begin="0.00" end="1.00" period="500" departPos="random" departSpeed="max">
        <route edges="A9B9"/>
    </flow>
    <flow id="231" begin="0.00" end="1.00" period="500" departPos="random" departSpeed="max">
        <route edges="C8B8"/>
    </flow>
    <flow id="232" begin="0.00" end="1.00" period="500" departPos="random" departSpeed="max">
        <route edges="F3G3"/>
    </flow>
    <flow id="233" begin="0.00" end="1.00" period="500" departPos="random" departSpeed="max">
        <route edges="C4C5"/>
    </flow>
    <flow id="234" begin="0.00" end="1.00" period="500" departPos="random" departSpeed="max">
        <route edges="G9G8"/>
    </flow>
    <flow id="235" begin="0.00" end="1.00" period="500" departPos="random" departSpeed="max">
        <route edges="E1E0"/>
    </flow>
    <flow id="236" begin="0.00" end="1.00" period="500" departPos="random" departSpeed="max">
        <route edges="E2D2"/>
    </flow>
    <flow id="237" begin="0.00" end="1.00" period="500" departPos="random" departSpeed="max">
        <route edges="E2E3"/>
    </flow>
    <flow id="238" begin="0.00" end="1.00" period="500" departPos="random" departSpeed="max">
        <route edges="F7G7"/>
    </flow>
    <flow id="239" begin="0.00" end="1.00" period="500" departPos="random" departSpeed="max">
        <route edges="I3J3"/>
    </flow>
    <flow id="24" begin="0.00" end="1.00" period="500" departPos="random" departSpeed="max">
        <route edges="G2H2"/>
    </flow>
    <flow id="240" begin="0.00" end="1.00" period="500" departPos="random" departSpeed="max">
        <route edges="D8D7"/>
    </flow>
    <flow id="241" begin="0.00" end="1.00" period="500" departPos="random" departSpeed="max">
        <route edges="D5E5"/>
    </flow>
    <flow id="242" begin="0.00" end="1.00" period="500" departPos="random" departSpeed="max">
        <route edges="I3I4"/>
    </flow>
    <flow id="243" begin="0.00" end="1.00" period="500" departPos="random" departSpeed="max">
        <route edges="E2E1"/>
    </flow>
    <flow id="244" begin="0.00" end="1.00" period="500" departPos="random" departSpeed="max">
        <route edges="F4F3"/>
    </flow>
    <flow id="245" begin="0.00" end="1.00" period="500" departPos="random" departSpeed="max">
        <route edges="C3C4"/>
    </flow>
    <flow id="246" begin="0.00" end="1.00" period="500" departPos="random" departSpeed="max">
        <route edges="E3F3"/>
    </flow>
    <flow id="247" begin="0.00" end="1.00" period="500" departPos="random" departSpeed="max">
        <route edges="D4D5"/>
    </flow>
    <flow id="248" begin="0.00" end="1.00" period="500" departPos="random" departSpeed="max">
        <route edges="E1D1"/>
    </flow>
    <flow id="249" begin="0.00" end="1.00" period="500" departPos="random" departSpeed="max">
        <route edges="E6F6"/>
    </flow>
    <flow id="25" begin="0.00" end="1.00" period="500" departPos="random" departSpeed="max">
        <route edges="D7D8"/>
    </flow>
    <flow id="250" begin="0.00" end="1.00" period="500" departPos="random" departSpeed="max">
        <route edges="G1H1"/>
    </flow>
    <flow id="251" begin="0.00" end="1.00" period="500" departPos="random" departSpeed="max">
        <route edges="D9E9"/>
    </flow>
    <flow id="252" begin="0.00" end="1.00" period="500" departPos="random" departSpeed="max">
        <route edges="A3A4"/>
    </flow>
    <flow id="253" begin="0.00" end="1.00" period="500" departPos="random" departSpeed="max">
        <route edges="B5B4"/>
    </flow>
    <flow id="254" begin="0.00" end="1.00" period="500" departPos="random" departSpeed="max">
        <route edges="A6A7"/>
    </flow>
    <flow id="255" begin="0.00" end="1.00" period="500" departPos="random" departSpeed="max">
        <route edges="C2D2"/>
    </flow>
    <flow id="256" begin="0.00" end="1.00" period="500" departPos="random" departSpeed="max">
        <route edges="H4I4"/>
    </flow>
    <flow id="257" begin="0.00" end="1.00" period="500" departPos="random" departSpeed="max">
        <route edges="H3I3"/>
    </flow>
    <flow id="258" begin="0.00" end="1.00" period="500" departPos="random" departSpeed="max">
        <route edges="C6C5"/>
    </flow>
    <flow id="259" begin="0.00" end="1.00" period="500" departPos="random" departSpeed="max">
        <route edges="A2A3"/>
    </flow>
    <flow id="26" begin="0.00" end="1.00" period="500" departPos="random" departSpeed="max">
        <route edges="C7D7"/>
    </flow>
    <flow id="260" begin="0.00" end="1.00" period="500" departPos="random" departSpeed="max">
        <route edges="J9J8"/>
    </flow>
    <flow id="261" begin="0.00" end="1.00" period="500" departPos="random" departSpeed="max">
        <route edges="G4G3"/>
    </flow>
    <flow id="262" begin="0.00" end="1.00" period="500" departPos="random" departSpeed="max">
        <route edges="G4G3"/>
    </flow>
    <flow id="263" begin="0.00" end="1.00" period="500" departPos="random" departSpeed="max">
        <route edges="J3J2"/>
    </flow>
    <flow id="264" begin="0.00" end="1.00" period="500" departPos="random" departSpeed="max">
        <route edges="A2B2"/>
    </flow>
    <flow id="265" begin="0.00" end="1.00" period="500" departPos="random" departSpeed="max">
        <route edges="B4B5"/>
    </flow>
    <flow id="266" begin="0.00" end="1.00" period="500" departPos="random" departSpeed="max">
        <route edges="F6E6"/>
    </flow>
    <flow id="267" begin="0.00" end="1.00" period="500" departPos="random" departSpeed="max">
        <route edges="G8G9"/>
    </flow>
    <flow id="268" begin="0.00" end="1.00" period="500" departPos="random" departSpeed="max">
        <route edges="B8B7"/>
    </flow>
    <flow id="269" begin="0.00" end="1.00" period="500" departPos="random" departSpeed="max">
        <route edges="H3H4"/>
    </flow>
    <flow id="27" begin="0.00" end="1.00" period="500" departPos="random" departSpeed="max">
        <route edges="G4F4"/>
    </flow>
    <flow id="270" begin="0.00" end="1.00" period="500" departPos="random" departSpeed="max">
        <route edges="I0H0"/>
    </flow>
    <flow id="271" begin="0.00" end="1.00" period="500" departPos="random" departSpeed="max">
        <route edges="B2C2"/>
    </flow>
    <flow id="272" begin="0.00" end="1.00" period="500" departPos="random" departSpeed="max">
        <route edges="D2D1"/>
    </flow>
    <flow id="273" begin="0.00" end="1.00" period="500" departPos="random" departSpeed="max">
        <route edges="J4J3"/>
    </flow>
    <flow id="274" begin="0.00" end="1.00" period="500" departPos="random" departSpeed="max">
        <route edges="H0H1"/>
    </flow>
    <flow id="275" begin="0.00" end="1.00" period="500" departPos="random" departSpeed="max">
        <route edges="G7H7"/>
    </flow>
    <flow id="276" begin="0.00" end="1.00" period="500" departPos="random" departSpeed="max">
        <route edges="B2B1"/>
    </flow>
    <flow id="277" begin="0.00" end="1.00" period="500" departPos="random" departSpeed="max">
        <route edges="I3I2"/>
    </flow>
    <flow id="278" begin="0.00" end="1.00" period="500" departPos="random" departSpeed="max">
        <route edges="B4A4"/>
    </flow>
    <flow id="279" begin="0.00" end="1.00" period="500" departPos="random" departSpeed="max">
        <route edges="H6H7"/>
    </flow>
    <flow id="28" begin="0.00" end="1.00" period="500" departPos="random" departSpeed="max">
        <route edges="B8B9"/>
    </flow>
    <flow id="280" begin="0.00" end="1.00" period="500" departPos="random" departSpeed="max">
        <route edges="E3E2"/>
    </flow>
    <flow id="281" begin="0.00" end="1.00" period="500" departPos="random" departSpeed="max">
        <route edges="F0G0"/>
    </flow>
    <flow id="282" begin="0.00" end="1.00" period="500" departPos="random" departSpeed="max">
        <route edges="I3H3"/>
    </flow>
    <flow id="283" begin="0.00" end="1.00" period="500" departPos="random" departSpeed="max">